Development for Unmanned Aerial Vehicles

UDPM: User Datagram Protocol Module
AADM: Aircraft AeroDynamics Module